<?xml version="1.0" encoding="UTF-8"?>

<!-- generated on 2026-03-11 22:54:31 by Eclipse SUMO netconvert Version 1.24.0
<netconvertConfiguration xmlns:xsi="http://www.w3.org/2001/XMLSchema-instance" xsi:noNamespaceSchemaLocation="http://sumo.dlr.de/xsd/netconvertConfiguration.xsd">

    <input>
        <node-files value="nodes.nod.xml"/>
        <edge-files value="edges.edg.xml"/>
    </input>

    <output>
        <output-file value="network.net.xml"/>
    </output>

    <junctions>
        <no-turnarounds value="true"/>
    </junctions>

</netconvertConfiguration>
-->

<net version="1.20" junctionCornerDetail="5" limitTurnSpeed="5.50" xmlns:xsi="http://www.w3.org/2001/XMLSchema-instance" xsi:noNamespaceSchemaLocation="http://sumo.dlr.de/xsd/net_file.xsd">

    <location netOffset="-100.00,-150.00" convBoundary="0.00,0.00,500.00,300.00" origBoundary="100.00,150.00,600.00,450.00" projParameter="!"/>

    <edge id=":J1_0" function="internal">
        <lane id=":J1_0_0" index="0" speed="6.51" length="9.03" shape="195.20,160.40 194.85,157.95 193.80,156.20 192.05,155.15 189.60,154.80"/>
    </edge>
    <edge id=":J1_1" function="internal">
        <lane id=":J1_1_0" index="0" speed="13.89" length="20.80" shape="195.20,160.40 195.20,139.60"/>
        <lane id=":J1_1_1" index="1" speed="13.89" length="20.80" shape="198.40,160.40 198.40,139.60"/>
    </edge>
    <edge id=":J1_3" function="internal">
        <lane id=":J1_3_0" index="0" speed="9.26" length="5.01" shape="198.40,160.40 199.11,155.44"/>
    </edge>
    <edge id=":J1_16" function="internal">
        <lane id=":J1_16_0" index="0" speed="9.26" length="14.34" shape="199.11,155.44 199.15,155.15 201.40,151.40 205.15,149.15 210.40,148.40"/>
    </edge>
    <edge id=":J1_4" function="internal">
        <lane id=":J1_4_0" index="0" speed="6.51" length="9.03" shape="210.40,154.80 207.95,155.15 206.20,156.20 205.15,157.95 204.80,160.40"/>
    </edge>
    <edge id=":J1_5" function="internal">
        <lane id=":J1_5_0" index="0" speed="13.89" length="20.80" shape="210.40,154.80 189.60,154.80"/>
        <lane id=":J1_5_1" index="1" speed="13.89" length="20.80" shape="210.40,151.60 189.60,151.60"/>
    </edge>
    <edge id=":J1_7" function="internal">
        <lane id=":J1_7_0" index="0" speed="9.26" length="5.01" shape="210.40,151.60 205.44,150.89"/>
    </edge>
    <edge id=":J1_17" function="internal">
        <lane id=":J1_17_0" index="0" speed="9.26" length="14.34" shape="205.44,150.89 205.15,150.85 201.40,148.60 199.15,144.85 198.40,139.60"/>
    </edge>
    <edge id=":J1_8" function="internal">
        <lane id=":J1_8_0" index="0" speed="6.51" length="9.03" shape="204.80,139.60 205.15,142.05 206.20,143.80 207.95,144.85 210.40,145.20"/>
    </edge>
    <edge id=":J1_9" function="internal">
        <lane id=":J1_9_0" index="0" speed="13.89" length="20.80" shape="204.80,139.60 204.80,160.40"/>
        <lane id=":J1_9_1" index="1" speed="13.89" length="20.80" shape="201.60,139.60 201.60,160.40"/>
    </edge>
    <edge id=":J1_11" function="internal">
        <lane id=":J1_11_0" index="0" speed="9.26" length="5.01" shape="201.60,139.60 200.89,144.56"/>
    </edge>
    <edge id=":J1_18" function="internal">
        <lane id=":J1_18_0" index="0" speed="9.26" length="14.34" shape="200.89,144.56 200.85,144.85 198.60,148.60 194.85,150.85 189.60,151.60"/>
    </edge>
    <edge id=":J1_12" function="internal">
        <lane id=":J1_12_0" index="0" speed="6.51" length="9.03" shape="189.60,145.20 192.05,144.85 193.80,143.80 194.85,142.05 195.20,139.60"/>
    </edge>
    <edge id=":J1_13" function="internal">
        <lane id=":J1_13_0" index="0" speed="13.89" length="20.80" shape="189.60,145.20 210.40,145.20"/>
        <lane id=":J1_13_1" index="1" speed="13.89" length="20.80" shape="189.60,148.40 210.40,148.40"/>
    </edge>
    <edge id=":J1_15" function="internal">
        <lane id=":J1_15_0" index="0" speed="9.26" length="5.01" shape="189.60,148.40 194.56,149.11"/>
    </edge>
    <edge id=":J1_19" function="internal">
        <lane id=":J1_19_0" index="0" speed="9.26" length="14.34" shape="194.56,149.11 194.85,149.15 198.60,151.40 200.85,155.15 201.60,160.40"/>
    </edge>
    <edge id=":J2_0" function="internal">
        <lane id=":J2_0_0" index="0" speed="13.89" length="20.80" shape="310.40,154.80 289.60,154.80"/>
        <lane id=":J2_0_1" index="1" speed="13.89" length="20.80" shape="310.40,151.60 289.60,151.60"/>
    </edge>
    <edge id=":J2_2" function="internal">
        <lane id=":J2_2_0" index="0" speed="9.26" length="5.01" shape="310.40,151.60 305.44,150.89"/>
    </edge>
    <edge id=":J2_9" function="internal">
        <lane id=":J2_9_0" index="0" speed="9.26" length="14.34" shape="305.44,150.89 305.15,150.85 301.40,148.60 299.15,144.85 298.40,139.60"/>
    </edge>
    <edge id=":J2_3" function="internal">
        <lane id=":J2_3_0" index="0" speed="6.51" length="9.03" shape="304.80,139.60 305.15,142.05 306.20,143.80 307.95,144.85 310.40,145.20"/>
        <lane id=":J2_3_1" index="1" speed="8.00" length="14.19" shape="301.60,139.60 302.15,143.45 303.80,146.20 306.55,147.85 310.40,148.40"/>
    </edge>
    <edge id=":J2_5" function="internal">
        <lane id=":J2_5_0" index="0" speed="9.26" length="19.35" shape="301.60,139.60 300.85,144.85 298.60,148.60 294.85,150.85 289.60,151.60"/>
    </edge>
    <edge id=":J2_6" function="internal">
        <lane id=":J2_6_0" index="0" speed="6.51" length="9.03" shape="289.60,145.20 292.05,144.85 293.80,143.80 294.85,142.05 295.20,139.60"/>
    </edge>
    <edge id=":J2_7" function="internal">
        <lane id=":J2_7_0" index="0" speed="13.89" length="20.80" shape="289.60,145.20 310.40,145.20"/>
        <lane id=":J2_7_1" index="1" speed="13.89" length="20.80" shape="289.60,148.40 310.40,148.40"/>
    </edge>

    <edge id="E2_to_J2" from="E2" to="J2" priority="-1">
        <lane id="E2_to_J2_0" index="0" speed="13.89" length="189.60" shape="500.00,154.80 310.40,154.80"/>
        <lane id="E2_to_J2_1" index="1" speed="13.89" length="189.60" shape="500.00,151.60 310.40,151.60"/>
    </edge>
    <edge id="J1_to_J2" from="J1" to="J2" priority="-1">
        <lane id="J1_to_J2_0" index="0" speed="13.89" length="79.20" shape="210.40,145.20 289.60,145.20"/>
        <lane id="J1_to_J2_1" index="1" speed="13.89" length="79.20" shape="210.40,148.40 289.60,148.40"/>
    </edge>
    <edge id="J1_to_N1" from="J1" to="N1" priority="-1">
        <lane id="J1_to_N1_0" index="0" speed="13.89" length="139.60" shape="204.80,160.40 204.80,300.00"/>
        <lane id="J1_to_N1_1" index="1" speed="13.89" length="139.60" shape="201.60,160.40 201.60,300.00"/>
    </edge>
    <edge id="J1_to_S1" from="J1" to="S1" priority="-1">
        <lane id="J1_to_S1_0" index="0" speed="13.89" length="139.60" shape="195.20,139.60 195.20,0.00"/>
        <lane id="J1_to_S1_1" index="1" speed="13.89" length="139.60" shape="198.40,139.60 198.40,0.00"/>
    </edge>
    <edge id="J1_to_W1" from="J1" to="W1" priority="-1">
        <lane id="J1_to_W1_0" index="0" speed="13.89" length="189.60" shape="189.60,154.80 0.00,154.80"/>
        <lane id="J1_to_W1_1" index="1" speed="13.89" length="189.60" shape="189.60,151.60 0.00,151.60"/>
    </edge>
    <edge id="J2_to_E2" from="J2" to="E2" priority="-1">
        <lane id="J2_to_E2_0" index="0" speed="13.89" length="189.60" shape="310.40,145.20 500.00,145.20"/>
        <lane id="J2_to_E2_1" index="1" speed="13.89" length="189.60" shape="310.40,148.40 500.00,148.40"/>
    </edge>
    <edge id="J2_to_J1" from="J2" to="J1" priority="-1">
        <lane id="J2_to_J1_0" index="0" speed="13.89" length="79.20" shape="289.60,154.80 210.40,154.80"/>
        <lane id="J2_to_J1_1" index="1" speed="13.89" length="79.20" shape="289.60,151.60 210.40,151.60"/>
    </edge>
    <edge id="J2_to_S2" from="J2" to="S2" priority="-1">
        <lane id="J2_to_S2_0" index="0" speed="13.89" length="139.60" shape="295.20,139.60 295.20,0.00"/>
        <lane id="J2_to_S2_1" index="1" speed="13.89" length="139.60" shape="298.40,139.60 298.40,0.00"/>
    </edge>
    <edge id="N1_to_J1" from="N1" to="J1" priority="-1">
        <lane id="N1_to_J1_0" index="0" speed="13.89" length="139.60" shape="195.20,300.00 195.20,160.40"/>
        <lane id="N1_to_J1_1" index="1" speed="13.89" length="139.60" shape="198.40,300.00 198.40,160.40"/>
    </edge>
    <edge id="S1_to_J1" from="S1" to="J1" priority="-1">
        <lane id="S1_to_J1_0" index="0" speed="13.89" length="139.60" shape="204.80,0.00 204.80,139.60"/>
        <lane id="S1_to_J1_1" index="1" speed="13.89" length="139.60" shape="201.60,0.00 201.60,139.60"/>
    </edge>
    <edge id="S2_to_J2" from="S2" to="J2" priority="-1">
        <lane id="S2_to_J2_0" index="0" speed="13.89" length="139.60" shape="304.80,0.00 304.80,139.60"/>
        <lane id="S2_to_J2_1" index="1" speed="13.89" length="139.60" shape="301.60,0.00 301.60,139.60"/>
    </edge>
    <edge id="W1_to_J1" from="W1" to="J1" priority="-1">
        <lane id="W1_to_J1_0" index="0" speed="13.89" length="189.60" shape="0.00,145.20 189.60,145.20"/>
        <lane id="W1_to_J1_1" index="1" speed="13.89" length="189.60" shape="0.00,148.40 189.60,148.40"/>
    </edge>

    <tlLogic id="J1" type="static" programID="0" offset="0">
        <phase duration="42" state="GGGgrrrrGGGgrrrr"/>
        <phase duration="3"  state="yyyyrrrryyyyrrrr"/>
        <phase duration="42" state="rrrrGGGgrrrrGGGg"/>
        <phase duration="3"  state="rrrryyyyrrrryyyy"/>
    </tlLogic>
    <tlLogic id="J2" type="static" programID="0" offset="0">
        <phase duration="42" state="GGgrrrGGG"/>
        <phase duration="3"  state="yyyrrrGyy"/>
        <phase duration="42" state="rrrGGGGrr"/>
        <phase duration="3"  state="rrryyyGrr"/>
    </tlLogic>

    <junction id="E2" type="dead_end" x="500.00" y="150.00" incLanes="J2_to_E2_0 J2_to_E2_1" intLanes="" shape="500.00,150.00 500.00,143.60 500.00,150.00"/>
    <junction id="J1" type="traffic_light" x="200.00" y="150.00" incLanes="N1_to_J1_0 N1_to_J1_1 J2_to_J1_0 J2_to_J1_1 S1_to_J1_0 S1_to_J1_1 W1_to_J1_0 W1_to_J1_1" intLanes=":J1_0_0 :J1_1_0 :J1_1_1 :J1_16_0 :J1_4_0 :J1_5_0 :J1_5_1 :J1_17_0 :J1_8_0 :J1_9_0 :J1_9_1 :J1_18_0 :J1_12_0 :J1_13_0 :J1_13_1 :J1_19_0" shape="193.60,160.40 206.40,160.40 206.84,158.18 207.40,157.40 208.18,156.84 209.18,156.51 210.40,156.40 210.40,143.60 208.18,143.16 207.40,142.60 206.84,141.82 206.51,140.82 206.40,139.60 193.60,139.60 193.16,141.82 192.60,142.60 191.82,143.16 190.82,143.49 189.60,143.60 189.60,156.40 191.82,156.84 192.60,157.40 193.16,158.18 193.49,159.18">
        <request index="0"  response="0000000000000000" foes="0000000001100000" cont="0"/>
        <request index="1"  response="1000000010000000" foes="1111100011100000" cont="0"/>
        <request index="2"  response="1000000010000000" foes="1111100011100000" cont="0"/>
        <request index="3"  response="1000011010000000" foes="1110011011100000" cont="1"/>
        <request index="4"  response="0000011000000000" foes="0000011000000000" cont="0"/>
        <request index="5"  response="0000111000001111" foes="1000111000001111" cont="0"/>
        <request index="6"  response="0000111000001111" foes="1000111000001111" cont="0"/>
        <request index="7"  response="0110111000001110" foes="0110111000001110" cont="1"/>
        <request index="8"  response="0000000000000000" foes="0110000000000000" cont="0"/>
        <request index="9"  response="1000000010000000" foes="1110000011111000" cont="0"/>
        <request index="10" response="1000000010000000" foes="1110000011111000" cont="0"/>
        <request index="11" response="1000000010000110" foes="1110000011100110" cont="1"/>
        <request index="12" response="0000000000000110" foes="0000000000000110" cont="0"/>
        <request index="13" response="0000111100001110" foes="0000111110001110" cont="0"/>
        <request index="14" response="0000111100001110" foes="0000111110001110" cont="0"/>
        <request index="15" response="0000111001101110" foes="0000111001101110" cont="1"/>
    </junction>
    <junction id="J2" type="traffic_light" x="300.00" y="150.00" incLanes="E2_to_J2_0 E2_to_J2_1 S2_to_J2_0 S2_to_J2_1 J1_to_J2_0 J1_to_J2_1" intLanes=":J2_0_0 :J2_0_1 :J2_9_0 :J2_3_0 :J2_3_1 :J2_5_0 :J2_6_0 :J2_7_0 :J2_7_1" shape="310.40,156.40 310.40,143.60 308.18,143.16 307.40,142.60 306.84,141.82 306.51,140.82 306.40,139.60 293.60,139.60 293.16,141.82 292.60,142.60 291.82,143.16 290.82,143.49 289.60,143.60 289.60,156.40">
        <request index="0" response="000000000" foes="000100000" cont="0"/>
        <request index="1" response="000000000" foes="000100000" cont="0"/>
        <request index="2" response="110000000" foes="110100000" cont="1"/>
        <request index="3" response="110000000" foes="110000000" cont="0"/>
        <request index="4" response="110000000" foes="110000000" cont="0"/>
        <request index="5" response="110000111" foes="110000111" cont="0"/>
        <request index="6" response="000000000" foes="000000000" cont="0"/>
        <request index="7" response="000000000" foes="000111100" cont="0"/>
        <request index="8" response="000000000" foes="000111100" cont="0"/>
    </junction>
    <junction id="N1" type="dead_end" x="200.00" y="300.00" incLanes="J1_to_N1_0 J1_to_N1_1" intLanes="" shape="200.00,300.00 206.40,300.00 200.00,300.00"/>
    <junction id="S1" type="dead_end" x="200.00" y="0.00" incLanes="J1_to_S1_0 J1_to_S1_1" intLanes="" shape="200.00,0.00 193.60,0.00 200.00,0.00"/>
    <junction id="S2" type="dead_end" x="300.00" y="0.00" incLanes="J2_to_S2_0 J2_to_S2_1" intLanes="" shape="300.00,0.00 293.60,0.00 300.00,0.00"/>
    <junction id="W1" type="dead_end" x="0.00" y="150.00" incLanes="J1_to_W1_0 J1_to_W1_1" intLanes="" shape="0.00,150.00 0.00,156.40 0.00,150.00"/>

    <junction id=":J1_16_0" type="internal" x="199.11" y="155.44" incLanes=":J1_3_0 S1_to_J1_0 S1_to_J1_1" intLanes=":J1_5_0 :J1_5_1 :J1_7_0 :J1_8_0 :J1_9_0 :J1_9_1 :J1_13_0 :J1_13_1 :J1_15_0"/>
    <junction id=":J1_17_0" type="internal" x="205.44" y="150.89" incLanes=":J1_7_0 W1_to_J1_0 W1_to_J1_1" intLanes=":J1_1_0 :J1_1_1 :J1_3_0 :J1_9_0 :J1_9_1 :J1_11_0 :J1_12_0 :J1_13_0 :J1_13_1"/>
    <junction id=":J1_18_0" type="internal" x="200.89" y="144.56" incLanes=":J1_11_0 N1_to_J1_0 N1_to_J1_1" intLanes=":J1_0_0 :J1_1_0 :J1_1_1 :J1_5_0 :J1_5_1 :J1_7_0 :J1_13_0 :J1_13_1 :J1_15_0"/>
    <junction id=":J1_19_0" type="internal" x="194.56" y="149.11" incLanes=":J1_15_0 J2_to_J1_0 J2_to_J1_1" intLanes=":J1_1_0 :J1_1_1 :J1_3_0 :J1_4_0 :J1_5_0 :J1_5_1 :J1_9_0 :J1_9_1 :J1_11_0"/>
    <junction id=":J2_9_0" type="internal" x="305.44" y="150.89" incLanes=":J2_2_0 J1_to_J2_0 J1_to_J2_1" intLanes=":J2_5_0 :J2_7_0 :J2_7_1"/>

    <connection from="E2_to_J2" to="J2_to_J1" fromLane="0" toLane="0" via=":J2_0_0" tl="J2" linkIndex="0" dir="s" state="O"/>
    <connection from="E2_to_J2" to="J2_to_J1" fromLane="1" toLane="1" via=":J2_0_1" tl="J2" linkIndex="1" dir="s" state="O"/>
    <connection from="E2_to_J2" to="J2_to_S2" fromLane="1" toLane="1" via=":J2_2_0" tl="J2" linkIndex="2" dir="l" state="o"/>
    <connection from="J1_to_J2" to="J2_to_S2" fromLane="0" toLane="0" via=":J2_6_0" tl="J2" linkIndex="6" dir="r" state="O"/>
    <connection from="J1_to_J2" to="J2_to_E2" fromLane="0" toLane="0" via=":J2_7_0" tl="J2" linkIndex="7" dir="s" state="O"/>
    <connection from="J1_to_J2" to="J2_to_E2" fromLane="1" toLane="1" via=":J2_7_1" tl="J2" linkIndex="8" dir="s" state="O"/>
    <connection from="J2_to_J1" to="J1_to_N1" fromLane="0" toLane="0" via=":J1_4_0" tl="J1" linkIndex="4" dir="r" state="o"/>
    <connection from="J2_to_J1" to="J1_to_W1" fromLane="0" toLane="0" via=":J1_5_0" tl="J1" linkIndex="5" dir="s" state="o"/>
    <connection from="J2_to_J1" to="J1_to_W1" fromLane="1" toLane="1" via=":J1_5_1" tl="J1" linkIndex="6" dir="s" state="o"/>
    <connection from="J2_to_J1" to="J1_to_S1" fromLane="1" toLane="1" via=":J1_7_0" tl="J1" linkIndex="7" dir="l" state="o"/>
    <connection from="N1_to_J1" to="J1_to_W1" fromLane="0" toLane="0" via=":J1_0_0" tl="J1" linkIndex="0" dir="r" state="O"/>
    <connection from="N1_to_J1" to="J1_to_S1" fromLane="0" toLane="0" via=":J1_1_0" tl="J1" linkIndex="1" dir="s" state="O"/>
    <connection from="N1_to_J1" to="J1_to_S1" fromLane="1" toLane="1" via=":J1_1_1" tl="J1" linkIndex="2" dir="s" state="O"/>
    <connection from="N1_to_J1" to="J1_to_J2" fromLane="1" toLane="1" via=":J1_3_0" tl="J1" linkIndex="3" dir="l" state="o"/>
    <connection from="S1_to_J1" to="J1_to_J2" fromLane="0" toLane="0" via=":J1_8_0" tl="J1" linkIndex="8" dir="r" state="O"/>
    <connection from="S1_to_J1" to="J1_to_N1" fromLane="0" toLane="0" via=":J1_9_0" tl="J1" linkIndex="9" dir="s" state="O"/>
    <connection from="S1_to_J1" to="J1_to_N1" fromLane="1" toLane="1" via=":J1_9_1" tl="J1" linkIndex="10" dir="s" state="O"/>
    <connection from="S1_to_J1" to="J1_to_W1" fromLane="1" toLane="1" via=":J1_11_0" tl="J1" linkIndex="11" dir="l" state="o"/>
    <connection from="S2_to_J2" to="J2_to_E2" fromLane="0" toLane="0" via=":J2_3_0" tl="J2" linkIndex="3" dir="r" state="o"/>
    <connection from="S2_to_J2" to="J2_to_E2" fromLane="1" toLane="1" via=":J2_3_1" tl="J2" linkIndex="4" dir="r" state="o"/>
    <connection from="S2_to_J2" to="J2_to_J1" fromLane="1" toLane="1" via=":J2_5_0" tl="J2" linkIndex="5" dir="l" state="o"/>
    <connection from="W1_to_J1" to="J1_to_S1" fromLane="0" toLane="0" via=":J1_12_0" tl="J1" linkIndex="12" dir="r" state="o"/>
    <connection from="W1_to_J1" to="J1_to_J2" fromLane="0" toLane="0" via=":J1_13_0" tl="J1" linkIndex="13" dir="s" state="o"/>
    <connection from="W1_to_J1" to="J1_to_J2" fromLane="1" toLane="1" via=":J1_13_1" tl="J1" linkIndex="14" dir="s" state="o"/>
    <connection from="W1_to_J1" to="J1_to_N1" fromLane="1" toLane="1" via=":J1_15_0" tl="J1" linkIndex="15" dir="l" state="o"/>

    <connection from=":J1_0" to="J1_to_W1" fromLane="0" toLane="0" dir="r" state="M"/>
    <connection from=":J1_1" to="J1_to_S1" fromLane="0" toLane="0" dir="s" state="M"/>
    <connection from=":J1_1" to="J1_to_S1" fromLane="1" toLane="1" dir="s" state="M"/>
    <connection from=":J1_3" to="J1_to_J2" fromLane="0" toLane="1" via=":J1_16_0" dir="l" state="m"/>
    <connection from=":J1_16" to="J1_to_J2" fromLane="0" toLane="1" dir="l" state="M"/>
    <connection from=":J1_4" to="J1_to_N1" fromLane="0" toLane="0" dir="r" state="M"/>
    <connection from=":J1_5" to="J1_to_W1" fromLane="0" toLane="0" dir="s" state="M"/>
    <connection from=":J1_5" to="J1_to_W1" fromLane="1" toLane="1" dir="s" state="M"/>
    <connection from=":J1_7" to="J1_to_S1" fromLane="0" toLane="1" via=":J1_17_0" dir="l" state="m"/>
    <connection from=":J1_17" to="J1_to_S1" fromLane="0" toLane="1" dir="l" state="M"/>
    <connection from=":J1_8" to="J1_to_J2" fromLane="0" toLane="0" dir="r" state="M"/>
    <connection from=":J1_9" to="J1_to_N1" fromLane="0" toLane="0" dir="s" state="M"/>
    <connection from=":J1_9" to="J1_to_N1" fromLane="1" toLane="1" dir="s" state="M"/>
    <connection from=":J1_11" to="J1_to_W1" fromLane="0" toLane="1" via=":J1_18_0" dir="l" state="m"/>
    <connection from=":J1_18" to="J1_to_W1" fromLane="0" toLane="1" dir="l" state="M"/>
    <connection from=":J1_12" to="J1_to_S1" fromLane="0" toLane="0" dir="r" state="M"/>
    <connection from=":J1_13" to="J1_to_J2" fromLane="0" toLane="0" dir="s" state="M"/>
    <connection from=":J1_13" to="J1_to_J2" fromLane="1" toLane="1" dir="s" state="M"/>
    <connection from=":J1_15" to="J1_to_N1" fromLane="0" toLane="1" via=":J1_19_0" dir="l" state="m"/>
    <connection from=":J1_19" to="J1_to_N1" fromLane="0" toLane="1" dir="l" state="M"/>
    <connection from=":J2_0" to="J2_to_J1" fromLane="0" toLane="0" dir="s" state="M"/>
    <connection from=":J2_0" to="J2_to_J1" fromLane="1" toLane="1" dir="s" state="M"/>
    <connection from=":J2_2" to="J2_to_S2" fromLane="0" toLane="1" via=":J2_9_0" dir="l" state="m"/>
    <connection from=":J2_9" to="J2_to_S2" fromLane="0" toLane="1" dir="l" state="M"/>
    <connection from=":J2_3" to="J2_to_E2" fromLane="0" toLane="0" dir="r" state="M"/>
    <connection from=":J2_3" to="J2_to_E2" fromLane="1" toLane="1" dir="r" state="M"/>
    <connection from=":J2_5" to="J2_to_J1" fromLane="0" toLane="1" dir="l" state="M"/>
    <connection from=":J2_6" to="J2_to_S2" fromLane="0" toLane="0" dir="r" state="M"/>
    <connection from=":J2_7" to="J2_to_E2" fromLane="0" toLane="0" dir="s" state="M"/>
    <connection from=":J2_7" to="J2_to_E2" fromLane="1" toLane="1" dir="s" state="M"/>

</net>
