<?xml version="1.0" encoding="UTF-8"?>

<!-- generated on 2026-01-05 17:56:07 by Eclipse SUMO netconvert Version 1.24.0
<netconvertConfiguration xmlns:xsi="http://www.w3.org/2001/XMLSchema-instance" xsi:noNamespaceSchemaLocation="http://sumo.dlr.de/xsd/netconvertConfiguration.xsd">

    <input>
        <node-files value="nodes.nod.xml"/>
        <edge-files value="edges.edg.xml"/>
    </input>

    <output>
        <output-file value="network.net.xml"/>
    </output>

    <junctions>
        <no-turnarounds value="true"/>
    </junctions>

</netconvertConfiguration>
-->

<net version="1.20" junctionCornerDetail="5" limitTurnSpeed="5.50" xmlns:xsi="http://www.w3.org/2001/XMLSchema-instance" xsi:noNamespaceSchemaLocation="http://sumo.dlr.de/xsd/net_file.xsd">

    <location netOffset="-50.00,-50.00" convBoundary="0.00,0.00,300.00,150.00" origBoundary="50.00,50.00,350.00,200.00" projParameter="!"/>

    <edge id=":J_0" function="internal">
        <lane id=":J_0_0" index="0" speed="13.89" length="20.80" shape="160.40,154.80 139.60,154.80"/>
        <lane id=":J_0_1" index="1" speed="13.89" length="20.80" shape="160.40,151.60 139.60,151.60"/>
    </edge>
    <edge id=":J_2" function="internal">
        <lane id=":J_2_0" index="0" speed="9.26" length="5.01" shape="160.40,151.60 155.44,150.89"/>
    </edge>
    <edge id=":J_9" function="internal">
        <lane id=":J_9_0" index="0" speed="9.26" length="14.34" shape="155.44,150.89 155.15,150.85 151.40,148.60 149.15,144.85 148.40,139.60"/>
    </edge>
    <edge id=":J_3" function="internal">
        <lane id=":J_3_0" index="0" speed="6.51" length="9.03" shape="154.80,139.60 155.15,142.05 156.20,143.80 157.95,144.85 160.40,145.20"/>
        <lane id=":J_3_1" index="1" speed="8.00" length="14.19" shape="151.60,139.60 152.15,143.45 153.80,146.20 156.55,147.85 160.40,148.40"/>
    </edge>
    <edge id=":J_5" function="internal">
        <lane id=":J_5_0" index="0" speed="9.26" length="19.35" shape="151.60,139.60 150.85,144.85 148.60,148.60 144.85,150.85 139.60,151.60"/>
    </edge>
    <edge id=":J_6" function="internal">
        <lane id=":J_6_0" index="0" speed="6.51" length="9.03" shape="139.60,145.20 142.05,144.85 143.80,143.80 144.85,142.05 145.20,139.60"/>
    </edge>
    <edge id=":J_7" function="internal">
        <lane id=":J_7_0" index="0" speed="13.89" length="20.80" shape="139.60,145.20 160.40,145.20"/>
        <lane id=":J_7_1" index="1" speed="13.89" length="20.80" shape="139.60,148.40 160.40,148.40"/>
    </edge>

    <edge id="E_to_J" from="E" to="J" priority="-1">
        <lane id="E_to_J_0" index="0" speed="13.89" length="139.60" shape="300.00,154.80 160.40,154.80"/>
        <lane id="E_to_J_1" index="1" speed="13.89" length="139.60" shape="300.00,151.60 160.40,151.60"/>
    </edge>
    <edge id="J_to_E" from="J" to="E" priority="-1">
        <lane id="J_to_E_0" index="0" speed="13.89" length="139.60" shape="160.40,145.20 300.00,145.20"/>
        <lane id="J_to_E_1" index="1" speed="13.89" length="139.60" shape="160.40,148.40 300.00,148.40"/>
    </edge>
    <edge id="J_to_S" from="J" to="S" priority="-1">
        <lane id="J_to_S_0" index="0" speed="13.89" length="139.60" shape="145.20,139.60 145.20,0.00"/>
        <lane id="J_to_S_1" index="1" speed="13.89" length="139.60" shape="148.40,139.60 148.40,0.00"/>
    </edge>
    <edge id="J_to_W" from="J" to="W" priority="-1">
        <lane id="J_to_W_0" index="0" speed="13.89" length="139.60" shape="139.60,154.80 0.00,154.80"/>
        <lane id="J_to_W_1" index="1" speed="13.89" length="139.60" shape="139.60,151.60 0.00,151.60"/>
    </edge>
    <edge id="S_to_J" from="S" to="J" priority="-1">
        <lane id="S_to_J_0" index="0" speed="13.89" length="139.60" shape="154.80,0.00 154.80,139.60"/>
        <lane id="S_to_J_1" index="1" speed="13.89" length="139.60" shape="151.60,0.00 151.60,139.60"/>
    </edge>
    <edge id="W_to_J" from="W" to="J" priority="-1">
        <lane id="W_to_J_0" index="0" speed="13.89" length="139.60" shape="0.00,145.20 139.60,145.20"/>
        <lane id="W_to_J_1" index="1" speed="13.89" length="139.60" shape="0.00,148.40 139.60,148.40"/>
    </edge>

    <tlLogic id="J" type="static" programID="0" offset="0">
        <phase duration="42" state="GGgrrrGGG"/>
        <phase duration="3"  state="yyyrrrGyy"/>
        <phase duration="42" state="rrrGGGGrr"/>
        <phase duration="3"  state="rrryyyGrr"/>
    </tlLogic>

    <junction id="E" type="dead_end" x="300.00" y="150.00" incLanes="J_to_E_0 J_to_E_1" intLanes="" shape="300.00,150.00 300.00,143.60 300.00,150.00"/>
    <junction id="J" type="traffic_light" x="150.00" y="150.00" incLanes="E_to_J_0 E_to_J_1 S_to_J_0 S_to_J_1 W_to_J_0 W_to_J_1" intLanes=":J_0_0 :J_0_1 :J_9_0 :J_3_0 :J_3_1 :J_5_0 :J_6_0 :J_7_0 :J_7_1" shape="160.40,156.40 160.40,143.60 158.18,143.16 157.40,142.60 156.84,141.82 156.51,140.82 156.40,139.60 143.60,139.60 143.16,141.82 142.60,142.60 141.82,143.16 140.82,143.49 139.60,143.60 139.60,156.40">
        <request index="0" response="000000000" foes="000100000" cont="0"/>
        <request index="1" response="000000000" foes="000100000" cont="0"/>
        <request index="2" response="110000000" foes="110100000" cont="1"/>
        <request index="3" response="110000000" foes="110000000" cont="0"/>
        <request index="4" response="110000000" foes="110000000" cont="0"/>
        <request index="5" response="110000111" foes="110000111" cont="0"/>
        <request index="6" response="000000000" foes="000000000" cont="0"/>
        <request index="7" response="000000000" foes="000111100" cont="0"/>
        <request index="8" response="000000000" foes="000111100" cont="0"/>
    </junction>
    <junction id="S" type="dead_end" x="150.00" y="0.00" incLanes="J_to_S_0 J_to_S_1" intLanes="" shape="150.00,0.00 143.60,0.00 150.00,0.00"/>
    <junction id="W" type="dead_end" x="0.00" y="150.00" incLanes="J_to_W_0 J_to_W_1" intLanes="" shape="0.00,150.00 0.00,156.40 0.00,150.00"/>

    <junction id=":J_9_0" type="internal" x="155.44" y="150.89" incLanes=":J_2_0 W_to_J_0 W_to_J_1" intLanes=":J_5_0 :J_7_0 :J_7_1"/>

    <connection from="E_to_J" to="J_to_W" fromLane="0" toLane="0" via=":J_0_0" tl="J" linkIndex="0" dir="s" state="O"/>
    <connection from="E_to_J" to="J_to_W" fromLane="1" toLane="1" via=":J_0_1" tl="J" linkIndex="1" dir="s" state="O"/>
    <connection from="E_to_J" to="J_to_S" fromLane="1" toLane="1" via=":J_2_0" tl="J" linkIndex="2" dir="l" state="o"/>
    <connection from="S_to_J" to="J_to_E" fromLane="0" toLane="0" via=":J_3_0" tl="J" linkIndex="3" dir="r" state="o"/>
    <connection from="S_to_J" to="J_to_E" fromLane="1" toLane="1" via=":J_3_1" tl="J" linkIndex="4" dir="r" state="o"/>
    <connection from="S_to_J" to="J_to_W" fromLane="1" toLane="1" via=":J_5_0" tl="J" linkIndex="5" dir="l" state="o"/>
    <connection from="W_to_J" to="J_to_S" fromLane="0" toLane="0" via=":J_6_0" tl="J" linkIndex="6" dir="r" state="O"/>
    <connection from="W_to_J" to="J_to_E" fromLane="0" toLane="0" via=":J_7_0" tl="J" linkIndex="7" dir="s" state="O"/>
    <connection from="W_to_J" to="J_to_E" fromLane="1" toLane="1" via=":J_7_1" tl="J" linkIndex="8" dir="s" state="O"/>

    <connection from=":J_0" to="J_to_W" fromLane="0" toLane="0" dir="s" state="M"/>
    <connection from=":J_0" to="J_to_W" fromLane="1" toLane="1" dir="s" state="M"/>
    <connection from=":J_2" to="J_to_S" fromLane="0" toLane="1" via=":J_9_0" dir="l" state="m"/>
    <connection from=":J_9" to="J_to_S" fromLane="0" toLane="1" dir="l" state="M"/>
    <connection from=":J_3" to="J_to_E" fromLane="0" toLane="0" dir="r" state="M"/>
    <connection from=":J_3" to="J_to_E" fromLane="1" toLane="1" dir="r" state="M"/>
    <connection from=":J_5" to="J_to_W" fromLane="0" toLane="1" dir="l" state="M"/>
    <connection from=":J_6" to="J_to_S" fromLane="0" toLane="0" dir="r" state="M"/>
    <connection from=":J_7" to="J_to_E" fromLane="0" toLane="0" dir="s" state="M"/>
    <connection from=":J_7" to="J_to_E" fromLane="1" toLane="1" dir="s" state="M"/>

</net>
