<?xml version="1.0" encoding="UTF-8"?>
<routes xmlns:xsi="http://www.w3.org/2001/XMLSchema-instance" xsi:noNamespaceSchemaLocation="http://sumo.dlr.de/xsd/routes_file.xsd">

    <vType id="normal" accel="2.6" decel="4.5" sigma="0.5" length="5" minGap="2.5" maxSpeed="13.89" guiShape="passenger" color="0.24,0.24,0.24"/>
    <vType id="priority" accel="3.0" decel="5.0" sigma="0.3" length="5" minGap="2.0" maxSpeed="16.67" guiShape="emergency" color="0.1,0.1,0.1"/>

    <route id="W_to_E" edges="W_to_J J_to_E"/>
    <route id="E_to_W" edges="E_to_J J_to_W"/>
    <route id="S_to_E" edges="S_to_J J_to_E"/>
    <route id="S_to_W" edges="S_to_J J_to_W"/>
    <route id="W_to_S" edges="W_to_J J_to_S"/>
    <route id="E_to_S" edges="E_to_J J_to_S"/>

    <flow id="flow_WE" type="normal" route="W_to_E" begin="0" end="3600" vehsPerHour="500" departLane="best" departSpeed="max"/>
    <flow id="flow_EW" type="normal" route="E_to_W" begin="0" end="3600" vehsPerHour="450" departLane="best" departSpeed="max"/>
    <flow id="flow_SE" type="normal" route="S_to_E" begin="0" end="3600" vehsPerHour="300" departLane="best" departSpeed="max"/>
    <flow id="flow_SW" type="normal" route="S_to_W" begin="0" end="3600" vehsPerHour="300" departLane="best" departSpeed="max"/>

    <flow id="flow_priority" type="priority" route="W_to_E" begin="300" end="3600" period="600" departLane="best" departSpeed="max"/>

</routes>
